148
Ga2 O3
Ga    0.004060    0.000000    4.473605
Ga    0.004060    3.037100    4.473605
Ga    0.004060    6.074200    4.473605
Ga   12.218060    0.000000    4.473605
Ga   12.218060    3.037100    4.473605
Ga   12.218060    6.074200    4.473605
Ga   10.823951    0.000000    1.156404
Ga   10.823951    3.037100    1.156404
Ga   10.823951    6.074200    1.156404
Ga   23.037950    0.000000    1.156404
Ga   23.037950    3.037100    1.156404
Ga   23.037950    6.074200    1.156404
Ga    6.111060    1.518550    4.473605
Ga    6.111060    4.555650    4.473605
Ga   18.325060    1.518550    4.473605
Ga   18.325060    4.555650    4.473605
Ga    4.716951    1.518550    1.156404
Ga    4.716951    4.555650    1.156404
Ga   16.930951    1.518550    1.156404
Ga   16.930951    4.555650    1.156404
Ga    1.502645    1.518550    1.767935
Ga    1.502645    4.555650    1.767935
Ga   13.716645    1.518550    1.767935
Ga   13.716645    4.555650    1.767935
Ga    9.325366    1.518550    3.862073
Ga    9.325366    4.555650    3.862073
Ga   21.539366    1.518550    3.862073
Ga   21.539366    4.555650    3.862073
Ga    7.609645    0.000000    1.767935
Ga    7.609645    3.037100    1.767935
Ga    7.609645    6.074200    1.767935
Ga   19.823644    0.000000    1.767935
Ga   19.823644    3.037100    1.767935
Ga   19.823644    6.074200    1.767935
Ga    3.218366    0.000000    3.862073
Ga    3.218366    3.037100    3.862073
Ga    3.218366    6.074200    3.862073
Ga   15.432366    0.000000    3.862073
Ga   15.432366    3.037100    3.862073
Ga   15.432366    6.074200    3.862073
 O    1.857021    0.000000    0.618175
 O    1.857021    3.037100    0.618175
 O    1.857021    6.074200    0.618175
 O   14.071021    0.000000    0.618175
 O   14.071021    3.037100    0.618175
 O   14.071021    6.074200    0.618175
 O    8.970989    0.000000    5.011834
 O    8.970989    3.037100    5.011834
 O    8.970989    6.074200    5.011834
 O   21.184989    0.000000    5.011834
 O   21.184989    3.037100    5.011834
 O   21.184989    6.074200    5.011834
 O    7.964021    1.518550    0.618175
 O    7.964021    4.555650    0.618175
 O   20.178021    1.518550    0.618175
 O   20.178021    4.555650    0.618175
 O    2.863989    1.518550    5.011834
 O    2.863989    4.555650    5.011834
 O   15.077989    1.518550    5.011834
 O   15.077989    4.555650    5.011834
 O    1.336097    0.000000    3.170821
 O    1.336097    3.037100    3.170821
 O    1.336097    6.074200    3.170821
 O   13.550097    0.000000    3.170821
 O   13.550097    3.037100    3.170821
 O   13.550097    6.074200    3.170821
 O    9.491914    0.000000    2.459188
 O    9.491914    3.037100    2.459188
 O    9.491914    6.074200    2.459188
 O   21.705913    0.000000    2.459188
 O   21.705913    3.037100    2.459188
 O   21.705913    6.074200    2.459188
 O    7.443097    1.518550    3.170821
 O    7.443097    4.555650    3.170821
 O   19.657097    1.518550    3.170821
 O   19.657097    4.555650    3.170821
 O    3.384914    1.518550    2.459188
 O    3.384914    4.555650    2.459188
 O   15.598913    1.518550    2.459188
 O   15.598913    4.555650    2.459188
 O   11.808278    1.518550    1.444660
 O   11.808278    4.555650    1.444660
 O   24.022277    1.518550    1.444660
 O   24.022277    4.555650    1.444660
 O   -0.980267    1.518550    4.185349
 O   -0.980267    4.555650    4.185349
 O   11.233733    1.518550    4.185349
 O   11.233733    4.555650    4.185349
 O    5.701278    0.000000    1.444660
 O    5.701278    3.037100    1.444660
 O    5.701278    6.074200    1.444660
 O   17.915277    0.000000    1.444660
 O   17.915277    3.037100    1.444660
 O   17.915277    6.074200    1.444660
 O    5.126733    0.000000    4.185349
 O    5.126733    3.037100    4.185349
 O    5.126733    6.074200    4.185349
 O   17.340733    0.000000    4.185349
 O   17.340733    3.037100    4.185349
 O   17.340733    6.074200    4.185349
 O   -0.980267   -1.518550    4.185349
 O    0.471032    0.000000    6.248184
 O    0.471032    3.037100    6.248184
 O   -0.980267    7.592750    4.185349
 O    0.471032    6.074200    6.248184
 O   11.233733   -1.518550    4.185349
 O   12.685032    0.000000    6.248184
 O   12.685032    3.037100    6.248184
 O   11.233733    7.592750    4.185349
 O   12.685032    6.074200    6.248184
 O   10.356978   -0.000000   -0.618175
 O   11.808278   -1.518550    1.444660
 O   10.356978    3.037100   -0.618175
 O   10.356978    6.074200   -0.618175
 O   11.808278    7.592750    1.444660
 O   22.570978   -0.000000   -0.618175
 O   24.022277   -1.518550    1.444660
 O   22.570978    3.037100   -0.618175
 O   22.570978    6.074200   -0.618175
 O   24.022277    7.592750    1.444660
 O    6.578032    1.518550    6.248184
 O    6.578032    4.555650    6.248184
 O   18.792032    1.518550    6.248184
 O   18.792032    4.555650    6.248184
 O    4.249979    1.518550   -0.618175
 O    4.249979    4.555650   -0.618175
 O   16.463978    1.518550   -0.618175
 O   16.463978    4.555650   -0.618175
 O   -0.405722    1.518550    1.444660
 O   -0.405722    4.555650    1.444660
 O   23.447733    1.518550    4.185349
 O   23.447733    4.555650    4.185349
 O    7.964021   -1.518550    0.618175
 O    7.443097   -1.518550    3.170821
 O    7.964021    7.592750    0.618175
 O    7.443097    7.592750    3.170821
 O   20.178021   -1.518550    0.618175
 O   19.657097   -1.518550    3.170821
 O   20.178021    7.592750    0.618175
 O   19.657097    7.592750    3.170821
 O    3.384914   -1.518550    2.459188
 O    2.863989   -1.518550    5.011834
 O    3.384914    7.592750    2.459188
 O    2.863989    7.592750    5.011834
 O   15.598913   -1.518550    2.459188
 O   15.077989   -1.518550    5.011834
 O   15.598913    7.592750    2.459188
 O   15.077989    7.592750    5.011834
