80
Ga2O3
Ga      10.82395088       0.00000000       1.15640379        0
Ga       4.72507133       1.51855000      10.10361368        0
Ga       7.93937720       1.51855000       9.49208213        1
Ga       1.83237720       0.00000000       9.49208213        1
Ga       6.22365611       0.00000000       7.39794408        1
Ga       0.11665611       4.55565000       7.39794408        1
Ga       7.93937720       4.55565000       9.49208213        1
Ga       4.72507133       4.55565000      10.10361368        0
Ga       3.33096198       4.55565000       6.78641253        0
Ga       3.33096198       1.51855000       6.78641253        0
Ga      -1.38192867       3.03710000      10.10361368        0
Ga      10.82395088       3.03710000       1.15640379        0
Ga       0.00406022       3.03710000       4.47360494        0
Ga       4.71695088       4.55565000       1.15640379        0
Ga       6.11106022       4.55565000       4.47360494        0
Ga       9.32536610       4.55565000       3.86207339        1
Ga       1.50264501       4.55565000       1.76793534        1
Ga       3.21836610       3.03710000       3.86207339        1
Ga       7.60964501       3.03710000       1.76793534        1
Ga       9.43796198       3.03710000       6.78641253        0
Ga      -1.38192867       0.00000000      10.10361368        0
Ga       0.11665611       1.51855000       7.39794408        1
Ga       1.83237720       3.03710000       9.49208213        1
Ga       6.22365611       3.03710000       7.39794408        1
Ga       0.00406022       0.00000000       4.47360494        0
Ga       4.71695088       1.51855000       1.15640379        0
Ga       6.11106022       1.51855000       4.47360494        0
Ga       9.32536610       1.51855000       3.86207339        1
Ga       1.50264501       1.51855000       1.76793534        1
Ga       3.21836610       0.00000000       3.86207339        1
Ga       7.60964501       0.00000000       1.76793534        1
Ga       9.43796198       0.00000000       6.78641253        0
O        1.33609725       3.03710000       3.17082092        3
O       10.42228895       4.55565000       7.07466898        4
O        3.38491385       4.55565000       2.45918782        3
O        7.44309725       4.55565000       3.17082092        3
O       -0.98026675       4.55565000       4.18534850        4
O       11.80827785       4.55565000       1.44466024        4
O        5.70127785       3.03710000       1.44466024        4
O       -2.36625564       4.55565000       9.81535723        4
O        6.05710836       4.55565000       8.80082966        3
O        1.99892495       4.55565000       8.08919655        3
O       -0.04989164       3.03710000       8.80082966        3
O        8.10592495       3.03710000       8.08919655        3
O        6.57803252       4.55565000       6.24818370        2
O        1.47800079       4.55565000      10.64184252        2
O        0.47103252       3.03710000       6.24818370        2
O        9.49191385       3.03710000       2.45918782        3
O        7.58500079       3.03710000      10.64184252        2
O        5.12673325       3.03710000       4.18534850        4
O        7.96402142       4.55565000       0.61817496        2
O        4.31528895       0.00000000       7.07466898        4
O        1.85702142       3.03710000       0.61817496        2
O        8.97098968       0.00000000       5.01183378        2
O        1.85702142       0.00000000       0.61817496        2
O        2.86398968       1.51855000       5.01183378        2
O        7.96402142       1.51855000       0.61817496        2
O        9.49191385       0.00000000       2.45918782        3
O        1.33609725       0.00000000       3.17082092        3
O        3.38491385       1.51855000       2.45918782        3
O        7.44309725       1.51855000       3.17082092        3
O       -0.98026675       1.51855000       4.18534850        4
O       11.80827785       1.51855000       1.44466024        4
O        5.12673325       0.00000000       4.18534850        4
O        5.70127785       0.00000000       1.44466024        4
O        7.58500079       0.00000000      10.64184252        2
O        0.47103252       0.00000000       6.24818370        2
O        1.47800079       1.51855000      10.64184252        2
O        6.57803252       1.51855000       6.24818370        2
O        8.10592495       0.00000000       8.08919655        3
O       -0.04989164       0.00000000       8.80082966        3
O        1.99892495       1.51855000       8.08919655        3
O        6.05710836       1.51855000       8.80082966        3
O       -2.36625564       1.51855000       9.81535723        4
O       10.42228895       1.51855000       7.07466898        4
O        3.74074436       0.00000000       9.81535723        4
O        3.74074436       3.03710000       9.81535723        4
O        8.97098968       3.03710000       5.01183378        2
O        2.86398968       4.55565000       5.01183378        2
O        4.31528895       3.03710000       7.07466898        4
